
**** 12/05/21 22:24:55 ********* PSpice 9.2 (Mar 2000) ******** ID# 1 ********

 ** Profile: "SCHEMATIC1-3"  [ e:\code\assignments\3rd term\electrical-circuit-lab-fall400\session 8\3\3-schematic1-3.sim ] 


 ****     CIRCUIT DESCRIPTION


******************************************************************************




** Creating circuit file "3-schematic1-3.sim.cir" 
** WARNING: THIS AUTOMATICALLY GENERATED FILE MAY BE OVERWRITTEN BY SUBSEQUENT SIMULATIONS

*Libraries: 
* Local Libraries :
* From [PSPICE NETLIST] section of e:\orCad\PSpice\PSpice.ini file:
.lib "nom.lib" 

*Analysis directives: 
.TRAN  0 3m 0 10u 
.PROBE V(*) I(*) W(*) D(*) NOISE(*) 
.INC ".\3-SCHEMATIC1.net" 



**** INCLUDING 3-SCHEMATIC1.net ****
* source 3
C_C1         N00127 N00182  1u  
D_D1         0 N00182 D1N4001 
R_R1         0 N00182  100k  
V_V2         N00127 0  
+SIN 0 4 1k 0 0 0

**** RESUMING 3-schematic1-3.sim.cir ****
.END

**** 12/05/21 22:24:55 ********* PSpice 9.2 (Mar 2000) ******** ID# 1 ********

 ** Profile: "SCHEMATIC1-3"  [ e:\code\assignments\3rd term\electrical-circuit-lab-fall400\session 8\3\3-schematic1-3.sim ] 


 ****     Diode MODEL PARAMETERS


******************************************************************************




               D1N4001         
          IS   14.110000E-09 
           N    1.984        
         IKF   94.81         
          BV   75            
         IBV   10.000000E-06 
          RS     .03389      
          TT    5.700000E-06 
         CJO   25.890000E-12 
          VJ     .3245       
           M     .44         


**** 12/05/21 22:24:55 ********* PSpice 9.2 (Mar 2000) ******** ID# 1 ********

 ** Profile: "SCHEMATIC1-3"  [ e:\code\assignments\3rd term\electrical-circuit-lab-fall400\session 8\3\3-schematic1-3.sim ] 


 ****     INITIAL TRANSIENT SOLUTION       TEMPERATURE =   27.000 DEG C


******************************************************************************



 NODE   VOLTAGE     NODE   VOLTAGE     NODE   VOLTAGE     NODE   VOLTAGE


(N00127)    0.0000 (N00182)-12.72E-21 




    VOLTAGE SOURCE CURRENTS
    NAME         CURRENT

    V_V2         0.000E+00

    TOTAL POWER DISSIPATION   0.00E+00  WATTS



          JOB CONCLUDED

          TOTAL JOB TIME             .02
