
**** 10/17/21 23:48:55 ********* PSpice 9.2 (Mar 2000) ******** ID# 1 ********

 ** Profile: "SCHEMATIC1-asd"  [ E:\CODE\Electric Circuit Lab\az1-SCHEMATIC1-asd.sim ] 


 ****     CIRCUIT DESCRIPTION


******************************************************************************




** Creating circuit file "az1-SCHEMATIC1-asd.sim.cir" 
** WARNING: THIS AUTOMATICALLY GENERATED FILE MAY BE OVERWRITTEN BY SUBSEQUENT SIMULATIONS

*Libraries: 
* Local Libraries :
* From [PSPICE NETLIST] section of e:\orCad\PSpice\PSpice.ini file:
.lib "nom.lib" 

*Analysis directives: 
.PROBE V(*) I(*) W(*) D(*) NOISE(*) 
.INC ".\az1-SCHEMATIC1.net" 



**** INCLUDING az1-SCHEMATIC1.net ****
* source AZ1
R_R4         0 0  1k  
R_R5         0 0  2.2k  
R_R6         0 0  5.6k  
V_V3         0 0 3V
V_V4         0 0 1.5V

**** RESUMING az1-SCHEMATIC1-asd.sim.cir ****
.END

WARNING -- All terminals are grounded in this circuit