
**** 12/06/21 17:13:05 ********* PSpice 9.2 (Mar 2000) ******** ID# 1 ********

 ** Profile: "SCHEMATIC1-1"  [ E:\Code\Assignments\3rd Term\Electrical-Circuit-Lab-Fall400\Session 8\1\1-schematic1-1.sim ] 


 ****     CIRCUIT DESCRIPTION


******************************************************************************




** Creating circuit file "1-schematic1-1.sim.cir" 
** WARNING: THIS AUTOMATICALLY GENERATED FILE MAY BE OVERWRITTEN BY SUBSEQUENT SIMULATIONS

*Libraries: 
* Local Libraries :
* From [PSPICE NETLIST] section of e:\orCad\PSpice\PSpice.ini file:
.lib "nom.lib" 

*Analysis directives: 
.DC LIN V_V1 0 15 0.1 
.PROBE V(*) I(*) W(*) D(*) NOISE(*) 
.INC ".\1-SCHEMATIC1.net" 



**** INCLUDING 1-SCHEMATIC1.net ****
* source 1
V_V1         N00069 0 0Vdc
R_R1         N00069 N00099  1k  
D_D1         N00099 0 D1N4001 

**** RESUMING 1-schematic1-1.sim.cir ****
.END

**** 12/06/21 17:13:05 ********* PSpice 9.2 (Mar 2000) ******** ID# 1 ********

 ** Profile: "SCHEMATIC1-1"  [ E:\Code\Assignments\3rd Term\Electrical-Circuit-Lab-Fall400\Session 8\1\1-schematic1-1.sim ] 


 ****     Diode MODEL PARAMETERS


******************************************************************************




               D1N4001         
          IS   14.110000E-09 
           N    1.984        
         IKF   94.81         
          BV   75            
         IBV   10.000000E-06 
          RS     .03389      
          TT    5.700000E-06 
         CJO   25.890000E-12 
          VJ     .3245       
           M     .44         



          JOB CONCLUDED

          TOTAL JOB TIME             .02
