
**** 11/29/21 16:27:48 ********* PSpice 9.2 (Mar 2000) ******** ID# 1 ********

 ** Profile: "SCHEMATIC1-4"  [ E:\CODE\ASSIGNMENTS\3RD TERM\ELECTRICAL-CIRCUIT-LAB-FALL400\SESSION 7\4\4-SCHEMATIC1-4.sim ] 


 ****     CIRCUIT DESCRIPTION


******************************************************************************




** Creating circuit file "4-SCHEMATIC1-4.sim.cir" 
** WARNING: THIS AUTOMATICALLY GENERATED FILE MAY BE OVERWRITTEN BY SUBSEQUENT SIMULATIONS

*Libraries: 
* Local Libraries :
* From [PSPICE NETLIST] section of e:\orCad\PSpice\PSpice.ini file:
.lib "nom.lib" 

*Analysis directives: 
.AC DEC 100 0.1 1000k
.PROBE V(*) I(*) W(*) D(*) NOISE(*) 
.INC ".\4-SCHEMATIC1.net" 



**** INCLUDING 4-SCHEMATIC1.net ****
* source 4
R_R1         N00119 N00153  1k  
R_R2         0 N00180  10k  
C_C1         0 N00153  100n  
C_C2         N00153 N00180  100n  
V_V2         N00119 0 DC 0Vdc AC 1Vac 

**** RESUMING 4-SCHEMATIC1-4.sim.cir ****
.END

**** 11/29/21 16:27:48 ********* PSpice 9.2 (Mar 2000) ******** ID# 1 ********

 ** Profile: "SCHEMATIC1-4"  [ E:\CODE\ASSIGNMENTS\3RD TERM\ELECTRICAL-CIRCUIT-LAB-FALL400\SESSION 7\4\4-SCHEMATIC1-4.sim ] 


 ****     SMALL SIGNAL BIAS SOLUTION       TEMPERATURE =   27.000 DEG C


******************************************************************************



 NODE   VOLTAGE     NODE   VOLTAGE     NODE   VOLTAGE     NODE   VOLTAGE


(N00119)    0.0000 (N00153)    0.0000 (N00180)    0.0000 




    VOLTAGE SOURCE CURRENTS
    NAME         CURRENT

    V_V2         0.000E+00

    TOTAL POWER DISSIPATION   0.00E+00  WATTS



          JOB CONCLUDED

          TOTAL JOB TIME             .03
