
**** 10/18/21 16:50:53 ********* PSpice 9.2 (Mar 2000) ******** ID# 1 ********

 ** Profile: "SCHEMATIC1-6"  [ E:\Code\Electric Circuit Lab\Az 3\6\6-schematic1-6.sim ] 


 ****     CIRCUIT DESCRIPTION


******************************************************************************




** Creating circuit file "6-schematic1-6.sim.cir" 
** WARNING: THIS AUTOMATICALLY GENERATED FILE MAY BE OVERWRITTEN BY SUBSEQUENT SIMULATIONS

*Libraries: 
* Local Libraries :
* From [PSPICE NETLIST] section of e:\orCad\PSpice\PSpice.ini file:
.lib "nom.lib" 

*Analysis directives: 
.DC LIN PARAM R 1 1000 1 
.PROBE V(*) I(*) W(*) D(*) NOISE(*) 
.INC ".\6-SCHEMATIC1.net" 



**** INCLUDING 6-SCHEMATIC1.net ****
* source 6
V_V1         N00113 0 4.5v
R_R1         N00113 N00143  33  
R_R2         N00143 N00170  33  
R_R3         0 N00143  1k  
R_R4         0 N00170  {R}  
.PARAM  R=1k

**** RESUMING 6-schematic1-6.sim.cir ****
.END


          JOB CONCLUDED

          TOTAL JOB TIME             .05
