
**** 10/18/21 16:31:16 ********* PSpice 9.2 (Mar 2000) ******** ID# 1 ********

 ** Profile: "SCHEMATIC1-4"  [ E:\CODE\ELECTRIC CIRCUIT LAB\AZ 3\4\4-schematic1-4.sim ] 


 ****     CIRCUIT DESCRIPTION


******************************************************************************




** Creating circuit file "4-schematic1-4.sim.cir" 
** WARNING: THIS AUTOMATICALLY GENERATED FILE MAY BE OVERWRITTEN BY SUBSEQUENT SIMULATIONS

*Libraries: 
* Local Libraries :
* From [PSPICE NETLIST] section of e:\orCad\PSpice\PSpice.ini file:
.lib "nom.lib" 

*Analysis directives: 
.TRAN  0 6.6ms 0 
.PROBE V(*) I(*) W(*) D(*) NOISE(*) 
.INC ".\4-SCHEMATIC1.net" 



**** INCLUDING 4-SCHEMATIC1.net ****
* source 4
R_R1         N00097 N00131  180  
R_R3         0 N00131  5.6k  
R_R4         N00131 0  180  
V_V1         N00097 0  
+SIN 0 5 150 0 0 0

**** RESUMING 4-schematic1-4.sim.cir ****
.END

**** 10/18/21 16:31:16 ********* PSpice 9.2 (Mar 2000) ******** ID# 1 ********

 ** Profile: "SCHEMATIC1-4"  [ E:\CODE\ELECTRIC CIRCUIT LAB\AZ 3\4\4-schematic1-4.sim ] 


 ****     INITIAL TRANSIENT SOLUTION       TEMPERATURE =   27.000 DEG C


******************************************************************************



 NODE   VOLTAGE     NODE   VOLTAGE     NODE   VOLTAGE     NODE   VOLTAGE


(N00097)    0.0000 (N00131)    0.0000 




    VOLTAGE SOURCE CURRENTS
    NAME         CURRENT

    V_V1         0.000E+00

    TOTAL POWER DISSIPATION   0.00E+00  WATTS



          JOB CONCLUDED

          TOTAL JOB TIME             .02
