
**** 12/06/21 17:09:10 ********* PSpice 9.2 (Mar 2000) ******** ID# 1 ********

 ** Profile: "SCHEMATIC1-2"  [ E:\Code\Assignments\3rd Term\Electrical-Circuit-Lab-Fall400\Session 8\2\2-schematic1-2.sim ] 


 ****     CIRCUIT DESCRIPTION


******************************************************************************




** Creating circuit file "2-schematic1-2.sim.cir" 
** WARNING: THIS AUTOMATICALLY GENERATED FILE MAY BE OVERWRITTEN BY SUBSEQUENT SIMULATIONS

*Libraries: 
* Local Libraries :
* From [PSPICE NETLIST] section of e:\orCad\PSpice\PSpice.ini file:
.lib "nom.lib" 

*Analysis directives: 
.TRAN  0 3m 0 10u 
.PROBE V(*) I(*) W(*) D(*) NOISE(*) 
.INC ".\2-SCHEMATIC1.net" 



**** INCLUDING 2-SCHEMATIC1.net ****
* source 2
C_C1         N00127 N00182  1u  
D_D1         N00182 0 D1N4001 
R_R1         0 N00182  100k  
V_V2         N00127 0  
+SIN 0 4 1k 0 0 0

**** RESUMING 2-schematic1-2.sim.cir ****
.END

**** 12/06/21 17:09:10 ********* PSpice 9.2 (Mar 2000) ******** ID# 1 ********

 ** Profile: "SCHEMATIC1-2"  [ E:\Code\Assignments\3rd Term\Electrical-Circuit-Lab-Fall400\Session 8\2\2-schematic1-2.sim ] 


 ****     Diode MODEL PARAMETERS


******************************************************************************




               D1N4001         
          IS   14.110000E-09 
           N    1.984        
         IKF   94.81         
          BV   75            
         IBV   10.000000E-06 
          RS     .03389      
          TT    5.700000E-06 
         CJO   25.890000E-12 
          VJ     .3245       
           M     .44         


**** 12/06/21 17:09:10 ********* PSpice 9.2 (Mar 2000) ******** ID# 1 ********

 ** Profile: "SCHEMATIC1-2"  [ E:\Code\Assignments\3rd Term\Electrical-Circuit-Lab-Fall400\Session 8\2\2-schematic1-2.sim ] 


 ****     INITIAL TRANSIENT SOLUTION       TEMPERATURE =   27.000 DEG C


******************************************************************************



 NODE   VOLTAGE     NODE   VOLTAGE     NODE   VOLTAGE     NODE   VOLTAGE


(N00127)    0.0000 (N00182) 7.179E-21 




    VOLTAGE SOURCE CURRENTS
    NAME         CURRENT

    V_V2         0.000E+00

    TOTAL POWER DISSIPATION   0.00E+00  WATTS



          JOB CONCLUDED

          TOTAL JOB TIME             .02
