
**** 12/06/21 17:12:48 ********* PSpice 9.2 (Mar 2000) ******** ID# 1 ********

 ** Profile: "SCHEMATIC1-6"  [ E:\Code\Assignments\3rd Term\Electrical-Circuit-Lab-Fall400\Session 8\6\6-schematic1-6.sim ] 


 ****     CIRCUIT DESCRIPTION


******************************************************************************




** Creating circuit file "6-schematic1-6.sim.cir" 
** WARNING: THIS AUTOMATICALLY GENERATED FILE MAY BE OVERWRITTEN BY SUBSEQUENT SIMULATIONS

*Libraries: 
* Local Libraries :
* From [PSPICE NETLIST] section of e:\orCad\PSpice\PSpice.ini file:
.lib "nom.lib" 

*Analysis directives: 
.TRAN  0 3m 0 10u 
.PROBE V(*) I(*) W(*) D(*) NOISE(*) 
.INC ".\6-SCHEMATIC1.net" 



**** INCLUDING 6-SCHEMATIC1.net ****
* source 6
V_V1         N01476 0  
+SIN 0 10 1k 0 0 0
R_R2         N01476 N01955  1k  
D_D2         N01955 N01985 D1N4001 
D_D3         0 N01985 BZX84C3V0L 

**** RESUMING 6-schematic1-6.sim.cir ****
.END

**** 12/06/21 17:12:48 ********* PSpice 9.2 (Mar 2000) ******** ID# 1 ********

 ** Profile: "SCHEMATIC1-6"  [ E:\Code\Assignments\3rd Term\Electrical-Circuit-Lab-Fall400\Session 8\6\6-schematic1-6.sim ] 


 ****     Diode MODEL PARAMETERS


******************************************************************************




               D1N4001         BZX84C3V0L      
          IS   14.110000E-09    9.651865E-15 
           N    1.984           1.08213      
         ISR                    7.538500E-06 
          NR                    3.41278      
         IKF   94.81                         
          BV   75               3.0632       
         IBV   10.000000E-06     .057477     
          RS     .03389         5.223448E-03 
          TT    5.700000E-06  312.135000E-09 
         CJO   25.890000E-12  170.000000E-12 
          VJ     .3245           .75         
           M     .44             .3333       


**** 12/06/21 17:12:48 ********* PSpice 9.2 (Mar 2000) ******** ID# 1 ********

 ** Profile: "SCHEMATIC1-6"  [ E:\Code\Assignments\3rd Term\Electrical-Circuit-Lab-Fall400\Session 8\6\6-schematic1-6.sim ] 


 ****     INITIAL TRANSIENT SOLUTION       TEMPERATURE =   27.000 DEG C


******************************************************************************



 NODE   VOLTAGE     NODE   VOLTAGE     NODE   VOLTAGE     NODE   VOLTAGE


(N01476)    0.0000 (N01955) 13.08E-18 (N01985)-146.3E-18 




    VOLTAGE SOURCE CURRENTS
    NAME         CURRENT

    V_V1         1.308E-20

    TOTAL POWER DISSIPATION   0.00E+00  WATTS



          JOB CONCLUDED

          TOTAL JOB TIME             .02
