
**** 10/18/21 11:46:44 ********* PSpice 9.2 (Mar 2000) ******** ID# 1 ********

 ** Profile: "SCHEMATIC1-1"  [ E:\CODE\ELECTRIC CIRCUIT LAB\AZ 3\2\2-SCHEMATIC1-1.sim ] 


 ****     CIRCUIT DESCRIPTION


******************************************************************************




** Creating circuit file "2-SCHEMATIC1-1.sim.cir" 
** WARNING: THIS AUTOMATICALLY GENERATED FILE MAY BE OVERWRITTEN BY SUBSEQUENT SIMULATIONS

*Libraries: 
* Local Libraries :
* From [PSPICE NETLIST] section of e:\orCad\PSpice\PSpice.ini file:
.lib "nom.lib" 

*Analysis directives: 
.PROBE V(*) I(*) W(*) D(*) NOISE(*) 
.INC ".\2-SCHEMATIC1.net" 



**** INCLUDING 2-SCHEMATIC1.net ****
* source 2
V_V1         N00047 0 11.5v
R_R1         N00047 0  589  

**** RESUMING 2-SCHEMATIC1-1.sim.cir ****
.END

**** 10/18/21 11:46:44 ********* PSpice 9.2 (Mar 2000) ******** ID# 1 ********

 ** Profile: "SCHEMATIC1-1"  [ E:\CODE\ELECTRIC CIRCUIT LAB\AZ 3\2\2-SCHEMATIC1-1.sim ] 


 ****     SMALL SIGNAL BIAS SOLUTION       TEMPERATURE =   27.000 DEG C


******************************************************************************



 NODE   VOLTAGE     NODE   VOLTAGE     NODE   VOLTAGE     NODE   VOLTAGE


(N00047)   11.5000 




    VOLTAGE SOURCE CURRENTS
    NAME         CURRENT

    V_V1        -1.952E-02

    TOTAL POWER DISSIPATION   2.25E-01  WATTS



          JOB CONCLUDED

          TOTAL JOB TIME             .02
